<?xml version="1.0" encoding="UTF-8"?>

<!-- generated on 11/21/19 17:19:51 by Eclipse SUMO netconvert Version v1_0_1+0383-8ba62d898b
<configuration xmlns:xsi="http://www.w3.org/2001/XMLSchema-instance" xsi:noNamespaceSchemaLocation="http://sumo.dlr.de/xsd/netconvertConfiguration.xsd">

    <input>
        <osm-files value="orlando.osm"/>
    </input>

    <output>
        <output-file value="out/orlando.net.xml"/>
        <plain-output-prefix value="out/orlando"/>
        <output.street-names value="true"/>
    </output>

    <projection>
        <proj.utm value="true"/>
    </projection>

    <processing>
        <roundabouts.guess value="true"/>
    </processing>

    <tls_building>
        <tls.discard-simple value="true"/>
        <tls.join value="true"/>
        <tls.guess-signals value="true"/>
    </tls_building>

    <ramp_guessing>
        <ramps.guess value="true"/>
    </ramp_guessing>

    <edge_removal>
        <keep-edges.by-vclass value="passenger"/>
    </edge_removal>

    <junctions>
        <junctions.join value="true"/>
    </junctions>

</configuration>
-->

<nodes version="1.0" xmlns:xsi="http://www.w3.org/2001/XMLSchema-instance" xsi:noNamespaceSchemaLocation="http://sumo.dlr.de/xsd/nodes_file.xsd">
    <location netOffset="-462192.88,-3150477.21" convBoundary="0.00,0.00,7453.34,5288.87" origBoundary="-81.386298,28.480508,-81.310147,28.528184" projParameter="+proj=utm +zone=17 +ellps=WGS84 +datum=WGS84 +units=m +no_defs"/>

    <node id="135796792#0-AddedOffRampNode" x="765.66" y="3594.33" type="priority"/>
    <node id="1411748967" x="3398.82" y="3523.17" type="priority"/>
    <node id="1411748968" x="3405.77" y="3526.17" type="priority"/>
    <node id="1411748983" x="719.34" y="4409.48" type="priority"/>
    <node id="1411748984" x="823.25" y="4411.80" type="priority"/>
    <node id="1411748987" x="3305.46" y="4834.81" type="priority"/>
    <node id="1411916001" x="2601.76" y="1801.43" type="priority"/>
    <node id="1411916004" x="2594.45" y="3648.62" type="priority"/>
    <node id="1411916006" x="537.35" y="4007.78" type="priority"/>
    <node id="1411916010" x="3551.31" y="4431.78" type="priority"/>
    <node id="1411916013" x="2728.06" y="4587.24" type="priority"/>
    <node id="1424070206" x="5691.78" y="4840.31" type="priority"/>
    <node id="1445494893" x="2189.92" y="3947.21" type="priority"/>
    <node id="1470858771" x="1892.13" y="3900.66" type="priority">
        <param key="buffer_stop" value="true"/>
    </node>
    <node id="1470858773" x="1892.15" y="3616.84" type="priority"/>
    <node id="1470858782" x="1988.59" y="3674.37" type="priority"/>
    <node id="1511383698" x="1669.59" y="1530.48" type="priority"/>
    <node id="1596923102" x="7297.54" y="4813.46" type="priority"/>
    <node id="1596923103" x="7245.02" y="4835.58" type="priority"/>
    <node id="1607667347" x="6939.76" y="2839.77" type="priority"/>
    <node id="1607667388" x="7040.43" y="3031.47" type="priority"/>
    <node id="1611191616" x="4866.38" y="3466.53" type="priority"/>
    <node id="1611191635" x="5015.79" y="4132.39" type="priority"/>
    <node id="1611282030" x="5024.13" y="2175.23" type="priority">
        <param key="buffer_stop" value="true"/>
    </node>
    <node id="1612589010" x="5946.90" y="2260.27" type="priority"/>
    <node id="1612589039" x="6004.98" y="2268.21" type="priority"/>
    <node id="1612589075" x="5952.65" y="2396.10" type="priority"/>
    <node id="1612589080" x="5869.17" y="2409.12" type="priority"/>
    <node id="1612589099" x="5865.90" y="2415.99" type="priority"/>
    <node id="1623138519" x="1674.72" y="3648.93" type="priority"/>
    <node id="1643013611" x="4066.27" y="4417.61" type="priority"/>
    <node id="1643070444" x="5832.35" y="1215.39" type="priority">
        <param key="buffer_stop" value="true"/>
    </node>
    <node id="1643070461" x="5970.96" y="1446.25" type="priority"/>
    <node id="1647255107" x="4041.87" y="3425.55" type="priority"/>
    <node id="1653424860" x="1413.08" y="1338.11" type="priority"/>
    <node id="1653424896" x="1381.11" y="1388.34" type="priority"/>
    <node id="1655435460" x="6507.45" y="2626.65" type="priority"/>
    <node id="1657015328" x="1236.88" y="2932.19" type="priority"/>
    <node id="1657015339" x="1389.50" y="2950.77" type="priority">
        <param key="buffer_stop" value="true"/>
    </node>
    <node id="1663091358" x="7214.86" y="1803.52" type="priority">
        <param key="buffer_stop" value="true"/>
    </node>
    <node id="1663091362" x="7062.46" y="1804.40" type="priority">
        <param key="buffer_stop" value="true"/>
    </node>
    <node id="1666722145" x="742.37" y="1990.84" type="priority"/>
    <node id="1666722164" x="651.04" y="2112.34" type="priority"/>
    <node id="1668076488" x="5183.96" y="3448.79" type="priority">
        <param key="buffer_stop" value="true"/>
    </node>
    <node id="1668228589" x="1415.68" y="1073.68" type="priority"/>
    <node id="1668433965" x="1382.86" y="1519.63" type="priority"/>
    <node id="1668433967" x="1384.76" y="1547.26" type="priority"/>
    <node id="1672995831" x="4918.95" y="2391.75" type="priority"/>
    <node id="1672995885" x="3277.39" y="2901.70" type="priority"/>
    <node id="1674105025" x="2046.02" y="2106.85" type="priority"/>
    <node id="1674105026" x="2533.98" y="2114.52" type="priority"/>
    <node id="1674105034" x="2541.91" y="2311.70" type="priority"/>
    <node id="1674332310" x="2095.20" y="1189.63" type="priority"/>
    <node id="1675266649" x="1499.27" y="2198.84" type="priority">
        <param key="buffer_stop" value="true"/>
    </node>
    <node id="1675344303" x="6277.06" y="4446.58" type="priority"/>
    <node id="1677511924" x="743.55" y="2245.01" type="priority"/>
    <node id="1678083752" x="5021.05" y="1614.67" type="priority"/>
    <node id="1685845992" x="1793.14" y="2298.54" type="priority"/>
    <node id="1685845994" x="1791.94" y="2399.97" type="priority"/>
    <node id="1686128206" x="6124.37" y="4842.48" type="priority"/>
    <node id="1686128207" x="6223.24" y="4843.21" type="priority"/>
    <node id="1686250462" x="5273.89" y="4846.11" type="priority"/>
    <node id="1686250521" x="4204.95" y="4943.67" type="priority"/>
    <node id="1690130355" x="1527.20" y="2975.80" type="priority"/>
    <node id="1690407118" x="1793.91" y="2198.72" type="priority"/>
    <node id="1692219645" x="5629.33" y="2424.69" type="priority"/>
    <node id="1695346979" x="4205.85" y="4779.86" type="priority"/>
    <node id="1696940521" x="1123.95" y="4314.17" type="priority"/>
    <node id="1696940634" x="1490.51" y="4314.81" type="priority"/>
    <node id="1696940635" x="1593.23" y="4316.08" type="priority"/>
    <node id="1696940637" x="1714.55" y="4317.81" type="priority"/>
    <node id="1696940640" x="6176.23" y="4446.73" type="priority"/>
    <node id="1696940648" x="6276.88" y="4481.07" type="priority"/>
    <node id="1696940654" x="6502.38" y="4502.50" type="priority"/>
    <node id="1696940660" x="6547.63" y="4506.09" type="priority"/>
    <node id="1696940663" x="6571.27" y="4506.07" type="priority"/>
    <node id="1696940671" x="6932.08" y="4505.98" type="priority"/>
    <node id="1696940734" x="6276.18" y="4616.39" type="priority"/>
    <node id="1696940756" x="6376.77" y="4728.28" type="priority"/>
    <node id="1696940773" x="6376.69" y="4751.04" type="priority"/>
    <node id="1696940780" x="6174.91" y="4752.40" type="priority"/>
    <node id="1696940794" x="6174.78" y="4782.74" type="priority"/>
    <node id="1696940805" x="6376.52" y="4807.47" type="priority"/>
    <node id="1696940849" x="6746.84" y="4814.90" type="priority"/>
    <node id="1696940852" x="4489.00" y="4892.12" type="priority"/>
    <node id="1699875903" x="1528.84" y="1509.75" type="priority"/>
    <node id="1699875940" x="1837.11" y="1563.65" type="priority"/>
    <node id="1699875943" x="0.00" y="1577.32" type="priority"/>
    <node id="1699875963" x="3081.79" y="1601.36" type="priority"/>
    <node id="1699875969" x="5235.73" y="2826.39" type="priority"/>
    <node id="1700027521" x="1783.39" y="4523.61" type="priority"/>
    <node id="1700922169" x="4726.97" y="1612.94" type="priority"/>
    <node id="1700922221" x="5237.92" y="2423.18" type="priority"/>
    <node id="1700922224" x="5363.01" y="2425.64" type="priority"/>
    <node id="1700922254" x="5830.51" y="2628.49" type="priority"/>
    <node id="1700922256" x="1846.62" y="2693.33" type="priority"/>
    <node id="1700922278" x="6580.50" y="3003.28" type="priority"/>
    <node id="1700922304" x="673.66" y="3199.61" type="priority"/>
    <node id="1700922305" x="925.29" y="3201.39" type="priority"/>
    <node id="1700922308" x="2697.04" y="3214.78" type="priority"/>
    <node id="1700922310" x="2810.14" y="3215.61" type="priority"/>
    <node id="1700922463" x="1029.14" y="3807.98" type="priority"/>
    <node id="1700922466" x="1037.74" y="3807.97" type="priority"/>
    <node id="1700922468" x="1049.73" y="3807.97" type="priority"/>
    <node id="1700922471" x="1066.46" y="3808.15" type="priority"/>
    <node id="1700922594" x="1796.98" y="4261.17" type="priority"/>
    <node id="1700922601" x="6630.82" y="4249.53" type="priority"/>
    <node id="1700922616" x="6630.14" y="4414.96" type="priority"/>
    <node id="1700922750" x="3802.10" y="4920.23" type="priority"/>
    <node id="1701786442" x="2442.79" y="3752.86" type="priority"/>
    <node id="2156054291" x="7037.91" y="3179.23" type="priority"/>
    <node id="2156054395" x="7038.16" y="3254.23" type="priority"/>
    <node id="2156054765" x="5127.30" y="3633.31" type="priority"/>
    <node id="2156054767" x="5238.04" y="3633.69" type="priority"/>
    <node id="2156054835" x="5018.23" y="3743.85" type="priority"/>
    <node id="2156054845" x="5415.03" y="3765.25" type="priority"/>
    <node id="2156054912" x="5017.61" y="3861.71" type="priority"/>
    <node id="2156054973" x="5414.44" y="4027.06" type="priority"/>
    <node id="2156054989" x="5016.43" y="4048.69" type="priority"/>
    <node id="2156055015" x="5015.83" y="4126.84" type="priority"/>
    <node id="2156055079" x="5413.64" y="4189.92" type="priority"/>
    <node id="2156055250" x="7034.20" y="4451.88" type="priority"/>
    <node id="2156055334" x="7129.25" y="4847.57" type="priority"/>
    <node id="2156055336" x="6255.42" y="4854.93" type="priority"/>
    <node id="2156078152" x="5412.90" y="4352.84" type="priority"/>
    <node id="2156078163" x="5014.74" y="4388.38" type="priority"/>
    <node id="2156078190" x="5014.30" y="4446.76" type="priority"/>
    <node id="2156078211" x="5425.74" y="4483.69" type="priority"/>
    <node id="2156078252" x="4609.57" y="4578.96" type="priority"/>
    <node id="2156078255" x="5013.30" y="4580.75" type="priority"/>
    <node id="2156078286" x="5009.60" y="4637.73" type="priority"/>
    <node id="2156078300" x="5009.34" y="4651.21" type="priority"/>
    <node id="2156078301" x="4609.42" y="4652.54" type="priority"/>
    <node id="2156078316" x="5424.85" y="4661.30" type="priority"/>
    <node id="2156078336" x="5009.09" y="4732.29" type="priority"/>
    <node id="2156078348" x="5008.95" y="4780.30" type="priority"/>
    <node id="2156078356" x="5537.72" y="4841.78" type="priority"/>
    <node id="2156078357" x="5609.94" y="4840.98" type="priority"/>
    <node id="2156078358" x="4700.89" y="4843.30" type="priority"/>
    <node id="2156078359" x="4745.18" y="4843.67" type="priority"/>
    <node id="2156099932" x="985.42" y="2689.97" type="priority"/>
    <node id="2167163309" x="7321.80" y="3778.26" type="priority"/>
    <node id="2170608071" x="3212.87" y="4027.02" type="priority"/>
    <node id="2184672935" x="1504.54" y="4215.96" type="priority"/>
    <node id="2184672938" x="1597.76" y="4216.33" type="priority"/>
    <node id="2184672940" x="1556.13" y="4268.07" type="priority"/>
    <node id="2185003586" x="2390.45" y="4051.92" type="priority"/>
    <node id="2185145136" x="5869.45" y="2338.13" type="priority"/>
    <node id="2186574775" x="6492.65" y="1368.44" type="priority"/>
    <node id="2186574776" x="6623.86" y="1373.79" type="priority"/>
    <node id="2186574777" x="6614.90" y="1374.46" type="priority"/>
    <node id="2186574778" x="6579.91" y="1375.68" type="priority"/>
    <node id="2188157193" x="4763.99" y="1422.09" type="priority"/>
    <node id="2189041285" x="6277.12" y="2462.87" type="priority"/>
    <node id="2189041286" x="6277.06" y="2469.94" type="priority"/>
    <node id="2189226900" x="1346.17" y="2558.07" type="priority"/>
    <node id="2189388000" x="728.78" y="2316.82" type="priority"/>
    <node id="2189547602" x="3817.76" y="2602.42" type="priority"/>
    <node id="2190629743" x="6658.45" y="1259.90" type="priority"/>
    <node id="2190629788" x="5936.04" y="2510.50" type="priority"/>
    <node id="2190629795" x="6137.47" y="2579.60" type="priority"/>
    <node id="2190629888" x="4818.04" y="3183.11" type="priority"/>
    <node id="2190789642" x="5994.45" y="825.52" type="priority"/>
    <node id="2190789650" x="5914.31" y="826.06" type="priority"/>
    <node id="2190789651" x="2300.91" y="1988.45" type="priority"/>
    <node id="2190789751" x="2777.99" y="2828.16" type="priority"/>
    <node id="2190789752" x="2957.10" y="2840.89" type="priority"/>
    <node id="2190789753" x="2957.07" y="2849.43" type="priority"/>
    <node id="2191786166" x="5832.24" y="1138.46" type="priority"/>
    <node id="2191786175" x="3429.23" y="2161.02" type="priority"/>
    <node id="2191786176" x="3803.13" y="2185.05" type="priority"/>
    <node id="2191786177" x="1972.17" y="2249.90" type="priority"/>
    <node id="2191923825" x="1837.80" y="3659.64" type="priority"/>
    <node id="2191923826" x="1837.56" y="3686.03" type="priority"/>
    <node id="2191923827" x="7253.16" y="4887.49" type="priority"/>
    <node id="2193484227" x="5435.11" y="20.60" type="priority"/>
    <node id="2193484228" x="5421.62" y="20.93" type="priority"/>
    <node id="2193484236" x="5435.09" y="338.12" type="priority"/>
    <node id="2193484237" x="5421.62" y="338.02" type="priority"/>
    <node id="2193484238" x="5433.50" y="1601.76" type="priority"/>
    <node id="2193484239" x="5420.08" y="1601.92" type="priority"/>
    <node id="2193484240" x="5443.43" y="1615.73" type="priority"/>
    <node id="2193484241" x="5409.83" y="1615.63" type="priority"/>
    <node id="2193484242" x="5420.04" y="1627.46" type="priority"/>
    <node id="2193484243" x="5433.46" y="1628.10" type="priority"/>
    <node id="2193484245" x="5417.69" y="2406.82" type="priority"/>
    <node id="2193484247" x="5431.08" y="2406.71" type="priority"/>
    <node id="2193484248" x="5411.17" y="2425.89" type="priority"/>
    <node id="2193484249" x="5437.03" y="2425.98" type="priority"/>
    <node id="2193484250" x="5417.71" y="2440.95" type="priority"/>
    <node id="2193484251" x="5431.07" y="2440.93" type="priority"/>
    <node id="2193484252" x="5418.83" y="2812.74" type="priority"/>
    <node id="2193484253" x="5432.21" y="2813.39" type="priority"/>
    <node id="2193484255" x="5411.84" y="2828.39" type="priority"/>
    <node id="2193484256" x="5442.11" y="2828.63" type="priority"/>
    <node id="2193484257" x="5432.17" y="2839.29" type="priority"/>
    <node id="2193484258" x="5418.77" y="2839.29" type="priority"/>
    <node id="2193484259" x="5415.52" y="3618.98" type="priority"/>
    <node id="2193484260" x="5428.90" y="3619.45" type="priority"/>
    <node id="2193484261" x="5437.94" y="3629.42" type="priority"/>
    <node id="2193484262" x="5405.83" y="3629.28" type="priority"/>
    <node id="2193484263" x="5406.33" y="3639.90" type="priority"/>
    <node id="2193484264" x="5437.68" y="3641.09" type="priority"/>
    <node id="2193484265" x="5428.78" y="3650.24" type="priority"/>
    <node id="2193484281" x="5415.42" y="3649.96" type="priority"/>
    <node id="2193484283" x="5409.12" y="4834.40" type="priority"/>
    <node id="2193484284" x="5424.95" y="4834.20" type="priority"/>
    <node id="2193484285" x="5399.85" y="4841.10" type="priority"/>
    <node id="2193484289" x="5435.35" y="4841.27" type="priority"/>
    <node id="2193484295" x="5400.86" y="4853.50" type="priority"/>
    <node id="2195202108" x="7421.05" y="1630.42" type="priority"/>
    <node id="2195202114" x="7421.52" y="2029.99" type="priority"/>
    <node id="2195202120" x="7419.68" y="2794.63" type="priority"/>
    <node id="2195202127" x="7417.80" y="3766.51" type="priority"/>
    <node id="2195202128" x="7417.30" y="3779.01" type="priority"/>
    <node id="2195202135" x="7416.54" y="4048.81" type="priority"/>
    <node id="2195202143" x="7406.79" y="4767.05" type="priority"/>
    <node id="2195202144" x="7411.33" y="4781.16" type="priority"/>
    <node id="2195307365" x="1165.69" y="1449.09" type="priority"/>
    <node id="2195307369" x="1162.36" y="1484.23" type="priority"/>
    <node id="2195307370" x="1183.80" y="1484.45" type="priority"/>
    <node id="2195307374" x="1098.08" y="1583.98" type="priority"/>
    <node id="2195307378" x="1109.93" y="1593.91" type="priority"/>
    <node id="2195307379" x="982.58" y="2505.09" type="priority"/>
    <node id="2195307380" x="968.07" y="2516.26" type="priority"/>
    <node id="2195307381" x="982.00" y="3188.86" type="priority"/>
    <node id="2195307382" x="968.73" y="3201.38" type="priority"/>
    <node id="2195307383" x="996.06" y="3201.37" type="priority"/>
    <node id="2195307384" x="982.39" y="3213.17" type="priority"/>
    <node id="2195307385" x="983.63" y="3585.44" type="priority"/>
    <node id="2195307386" x="965.15" y="3604.98" type="priority"/>
    <node id="2195307387" x="1004.07" y="3597.42" type="priority"/>
    <node id="2195307389" x="1004.37" y="3610.37" type="priority"/>
    <node id="2195307390" x="983.02" y="3623.65" type="priority"/>
    <node id="2195307391" x="979.56" y="4001.46" type="priority"/>
    <node id="2195307392" x="966.64" y="4009.79" type="priority"/>
    <node id="2195307393" x="993.24" y="4009.49" type="priority"/>
    <node id="2195307394" x="980.02" y="4018.70" type="priority"/>
    <node id="2195307395" x="979.87" y="4405.30" type="priority"/>
    <node id="2195307396" x="966.86" y="4415.60" type="priority"/>
    <node id="2195307397" x="991.94" y="4415.33" type="priority"/>
    <node id="2195307398" x="979.23" y="4424.25" type="priority"/>
    <node id="2195307399" x="975.98" y="4808.83" type="priority"/>
    <node id="2195307401" x="987.45" y="4819.63" type="priority"/>
    <node id="2195307402" x="987.38" y="4826.23" type="priority"/>
    <node id="2195529714" x="3399.37" y="4822.47" type="priority"/>
    <node id="2195529715" x="3802.06" y="4823.02" type="priority"/>
    <node id="2195529716" x="4205.81" y="4825.16" type="priority"/>
    <node id="2195529717" x="4609.32" y="4828.07" type="priority"/>
    <node id="2195529718" x="3385.53" y="4835.14" type="priority"/>
    <node id="2195529719" x="3413.45" y="4835.37" type="priority"/>
    <node id="2195529720" x="3787.72" y="4837.87" type="priority"/>
    <node id="2195529721" x="3817.84" y="4838.08" type="priority"/>
    <node id="2195529722" x="4191.79" y="4840.03" type="priority"/>
    <node id="2195529723" x="4220.35" y="4840.23" type="priority"/>
    <node id="2195529724" x="4595.04" y="4842.60" type="priority"/>
    <node id="2195529725" x="4624.05" y="4842.71" type="priority"/>
    <node id="2195529726" x="5669.22" y="4840.37" type="priority"/>
    <node id="2195529727" x="5725.34" y="4840.43" type="priority"/>
    <node id="2195529728" x="6013.15" y="4842.46" type="priority"/>
    <node id="2195529729" x="7032.04" y="4840.67" type="priority"/>
    <node id="2195529730" x="3399.17" y="4851.10" type="priority"/>
    <node id="2195529731" x="6255.27" y="4843.37" type="priority"/>
    <node id="2195529732" x="6508.57" y="4845.12" type="priority"/>
    <node id="2195529733" x="3802.05" y="4853.21" type="priority"/>
    <node id="2195529735" x="4205.67" y="4855.53" type="priority"/>
    <node id="2195529736" x="7025.76" y="4847.92" type="priority"/>
    <node id="2195529737" x="7082.47" y="4847.87" type="priority"/>
    <node id="2195529738" x="5669.25" y="4851.70" type="priority"/>
    <node id="2195529739" x="5610.31" y="4852.62" type="priority"/>
    <node id="2195529740" x="5537.97" y="4853.30" type="priority"/>
    <node id="2195529741" x="5725.21" y="4852.01" type="priority"/>
    <node id="2195529743" x="6508.24" y="4856.42" type="priority"/>
    <node id="2195529745" x="7082.68" y="4859.48" type="priority"/>
    <node id="2198939784" x="1990.40" y="3299.41" type="priority"/>
    <node id="2198939788" x="1989.53" y="3578.56" type="priority"/>
    <node id="2198939790" x="1384.92" y="3595.25" type="priority"/>
    <node id="2198939791" x="1372.37" y="3600.81" type="priority"/>
    <node id="2198939792" x="1398.36" y="3601.08" type="priority"/>
    <node id="2198939793" x="1586.50" y="3601.17" type="priority"/>
    <node id="2198939795" x="1989.96" y="3603.44" type="priority"/>
    <node id="2198939796" x="1576.00" y="3607.76" type="priority"/>
    <node id="2198939797" x="1597.44" y="3608.07" type="priority"/>
    <node id="2198939799" x="1996.90" y="3611.44" type="priority"/>
    <node id="2198939801" x="1370.22" y="3613.54" type="priority"/>
    <node id="2198939802" x="1399.31" y="3613.61" type="priority"/>
    <node id="2198939803" x="2594.06" y="3610.17" type="priority"/>
    <node id="2198939804" x="2180.36" y="3613.03" type="priority"/>
    <node id="2198939805" x="2201.49" y="3613.14" type="priority"/>
    <node id="2198939807" x="3395.62" y="3612.60" type="priority"/>
    <node id="2198939808" x="3408.65" y="3613.59" type="priority"/>
    <node id="2198939809" x="1576.13" y="3620.48" type="priority"/>
    <node id="2198939810" x="1385.15" y="3620.44" type="priority"/>
    <node id="2198939811" x="2583.49" y="3617.68" type="priority"/>
    <node id="2198939812" x="1597.53" y="3620.72" type="priority"/>
    <node id="2198939813" x="2604.83" y="3617.47" type="priority"/>
    <node id="2198939814" x="1998.22" y="3624.11" type="priority"/>
    <node id="2198939815" x="1585.54" y="3626.63" type="priority"/>
    <node id="2198939816" x="3388.83" y="3619.98" type="priority"/>
    <node id="2198939817" x="3415.05" y="3620.29" type="priority"/>
    <node id="2198939818" x="2181.06" y="3625.53" type="priority"/>
    <node id="2198939819" x="2201.65" y="3625.66" type="priority"/>
    <node id="2198939820" x="4616.25" y="3620.17" type="priority"/>
    <node id="2198939821" x="1988.76" y="3629.90" type="priority"/>
    <node id="2198939822" x="2583.40" y="3629.08" type="priority"/>
    <node id="2198939823" x="2607.64" y="3629.34" type="priority"/>
    <node id="2198939824" x="2191.04" y="3631.16" type="priority"/>
    <node id="2198939825" x="2594.49" y="3634.68" type="priority"/>
    <node id="2198939826" x="3387.79" y="3632.47" type="priority"/>
    <node id="2198939827" x="3414.90" y="3632.91" type="priority"/>
    <node id="2198939828" x="4607.98" y="3630.22" type="priority"/>
    <node id="2198939829" x="4627.67" y="3630.49" type="priority"/>
    <node id="2198939830" x="3395.07" y="3640.33" type="priority"/>
    <node id="2198939831" x="3408.40" y="3640.43" type="priority"/>
    <node id="2198939832" x="4616.28" y="3640.53" type="priority"/>
    <node id="2198939833" x="1585.47" y="3669.84" type="priority"/>
    <node id="2198939842" x="7037.54" y="3754.05" type="priority"/>
    <node id="2198939844" x="7049.63" y="3763.59" type="priority"/>
    <node id="2198939845" x="7029.71" y="3763.76" type="priority"/>
    <node id="2198939847" x="7318.74" y="3765.72" type="priority"/>
    <node id="2198939849" x="7027.55" y="3775.58" type="priority"/>
    <node id="2198939850" x="7049.73" y="3775.54" type="priority"/>
    <node id="2198939855" x="7036.80" y="3784.63" type="priority"/>
    <node id="2198939873" x="1381.26" y="4410.12" type="priority"/>
    <node id="2198939874" x="1373.62" y="4417.29" type="priority"/>
    <node id="2198939875" x="1389.70" y="4417.53" type="priority"/>
    <node id="2198939876" x="1796.84" y="4416.18" type="priority"/>
    <node id="2198939878" x="2188.78" y="4418.59" type="priority"/>
    <node id="2198939879" x="2590.77" y="4418.32" type="priority"/>
    <node id="2198939880" x="1806.91" y="4421.52" type="priority"/>
    <node id="2198939881" x="1381.19" y="4426.84" type="priority"/>
    <node id="2198939882" x="2178.91" y="4424.39" type="priority"/>
    <node id="2198939883" x="2194.65" y="4424.52" type="priority"/>
    <node id="2198939884" x="3400.25" y="4421.73" type="priority"/>
    <node id="2198939885" x="1784.56" y="4429.31" type="priority"/>
    <node id="2198939886" x="2583.63" y="4427.90" type="priority"/>
    <node id="2198939887" x="2596.99" y="4428.00" type="priority"/>
    <node id="2198939888" x="2188.61" y="4431.80" type="priority"/>
    <node id="2198939889" x="3395.08" y="4430.81" type="priority"/>
    <node id="2198939890" x="3407.89" y="4430.88" type="priority"/>
    <node id="2198939892" x="2590.72" y="4436.47" type="priority"/>
    <node id="2199384979" x="7036.97" y="1625.73" type="priority"/>
    <node id="2199384980" x="7055.64" y="1627.58" type="priority"/>
    <node id="2199384983" x="7047.81" y="1635.02" type="priority"/>
    <node id="2199384998" x="7041.90" y="2015.34" type="priority"/>
    <node id="2199385000" x="7057.96" y="2030.09" type="priority"/>
    <node id="2199385005" x="7041.70" y="2037.90" type="priority"/>
    <node id="2199385017" x="7039.86" y="2827.70" type="priority"/>
    <node id="2199385019" x="7029.59" y="2840.88" type="priority"/>
    <node id="2199385020" x="7050.60" y="2841.10" type="priority"/>
    <node id="2199385022" x="7039.80" y="2851.67" type="priority"/>
    <node id="2199385024" x="1459.07" y="3203.71" type="priority"/>
    <node id="2199385025" x="1447.96" y="3207.43" type="priority"/>
    <node id="2199385026" x="1466.13" y="3214.53" type="priority"/>
    <node id="2199385028" x="1454.53" y="3219.42" type="priority"/>
    <node id="2199385031" x="1383.24" y="4001.82" type="priority"/>
    <node id="2199385032" x="1370.54" y="4013.44" type="right_before_left"/>
    <node id="2199385033" x="1394.23" y="4014.75" type="priority"/>
    <node id="2199385034" x="1383.33" y="4024.78" type="priority"/>
    <node id="2202656250" x="923.77" y="3709.41" type="priority"/>
    <node id="2202656264" x="773.67" y="4213.21" type="priority"/>
    <node id="2202656265" x="788.52" y="4213.33" type="priority"/>
    <node id="2202656266" x="832.77" y="4213.97" type="priority"/>
    <node id="2202656269" x="772.85" y="4313.65" type="priority"/>
    <node id="2202656270" x="804.66" y="4313.62" type="priority"/>
    <node id="2202656272" x="848.29" y="4313.66" type="priority"/>
    <node id="2202656273" x="894.05" y="4313.92" type="priority"/>
    <node id="2202656274" x="924.77" y="4314.13" type="priority"/>
    <node id="2202656279" x="874.46" y="4478.57" type="priority"/>
    <node id="2202656282" x="719.53" y="4512.33" type="priority"/>
    <node id="2202656285" x="823.34" y="4513.76" type="priority"/>
    <node id="2202656286" x="921.04" y="4514.59" type="priority"/>
    <node id="2202656289" x="874.07" y="4537.69" type="priority"/>
    <node id="2202656290" x="770.62" y="4566.85" type="priority"/>
    <node id="2202656291" x="873.99" y="4567.56" type="priority"/>
    <node id="2202656293" x="873.92" y="4589.28" type="priority"/>
    <node id="2202656296" x="957.14" y="4614.62" type="priority"/>
    <node id="2202656297" x="806.30" y="4631.56" type="priority"/>
    <node id="2202656300" x="754.59" y="4656.48" type="priority"/>
    <node id="2202656303" x="939.38" y="4711.67" type="priority"/>
    <node id="2202656312" x="1484.49" y="4823.84" type="priority"/>
    <node id="2202656313" x="1511.32" y="4823.90" type="priority"/>
    <node id="2204097244" x="2093.45" y="1398.18" type="priority"/>
    <node id="2204097246" x="2093.05" y="1423.18" type="priority"/>
    <node id="2204097247" x="2100.64" y="1442.18" type="priority"/>
    <node id="2204097248" x="2147.60" y="1442.83" type="priority"/>
    <node id="2204097254" x="1119.89" y="2231.35" type="priority"/>
    <node id="2204097257" x="1079.90" y="2498.52" type="priority"/>
    <node id="2204097258" x="781.25" y="2514.61" type="priority"/>
    <node id="2204097259" x="1261.39" y="2570.17" type="priority"/>
    <node id="2204097260" x="863.58" y="2676.24" type="priority"/>
    <node id="2204097261" x="909.10" y="2677.07" type="priority"/>
    <node id="2204097262" x="1260.82" y="2686.36" type="priority"/>
    <node id="2204097268" x="1285.63" y="3019.69" type="priority"/>
    <node id="2204097271" x="1386.99" y="3110.44" type="priority"/>
    <node id="2204097272" x="1387.02" y="3116.41" type="priority"/>
    <node id="2204097273" x="1387.38" y="3179.90" type="priority"/>
    <node id="2204097275" x="717.53" y="3402.28" type="priority"/>
    <node id="2204097276" x="770.94" y="3402.49" type="priority"/>
    <node id="2204097277" x="899.39" y="3403.02" type="priority"/>
    <node id="2204097278" x="926.90" y="3403.26" type="priority"/>
    <node id="2204097280" x="1493.45" y="3407.05" type="priority"/>
    <node id="2204097282" x="1544.11" y="3407.17" type="priority"/>
    <node id="2204097284" x="890.05" y="3460.26" type="priority"/>
    <node id="2204097285" x="889.96" y="3488.05" type="priority"/>
    <node id="2204097286" x="717.26" y="3502.92" type="priority"/>
    <node id="2204097288" x="2494.56" y="3574.45" type="priority"/>
    <node id="2204097299" x="2492.76" y="3716.73" type="priority"/>
    <node id="2204097300" x="2326.85" y="4017.41" type="priority"/>
    <node id="2208655815" x="4216.72" y="1665.84" type="priority">
        <param key="buffer_stop" value="true"/>
    </node>
    <node id="2208655828" x="5506.23" y="2536.70" type="priority"/>
    <node id="2208655830" x="5511.31" y="2536.75" type="priority"/>